example-pypsa/solved_network.m
function mpc = solved_network

%% MATPOWER Case Format : Version 2
mpc.version = '2';

%% system MVA base
mpc.baseMVA = 100.0;

%% bus data
%	bus_i	type	Pd	Qd	Gs	Bs	area	Vm	Va	baseKV	zone	Vmax	Vmin
mpc.bus = [
	1.0	1.0	0.0	0.0	0.0	0.0	1.0	1.047	0.0	138.0	1.0	1.05	0.95;
	2.0	2.0	0.0	0.0	0.0	0.0	1.0	1.047	0.0	138.0	1.0	1.05	0.95;
	3.0	3.0	0.0	0.0	0.0	0.0	1.0	1.0	0.0	138.0	1.0	1.05	0.95;
	4.0	4.0	0.0	0.0	0.0	0.0	1.0	1.0	0.0	138.0	1.0	1.05	0.95;
	5.0	5.0	0.0	0.0	0.0	0.0	1.0	1.0	0.0	138.0	1.0	1.05	0.95;
	6.0	6.0	0.0	0.0	0.0	0.0	1.0	1.0	0.0	138.0	1.0	1.05	0.95;
	7.0	7.0	0.0	0.0	0.0	0.0	1.0	1.05	0.0	138.0	1.0	1.05	0.95;
	8.0	8.0	0.0	0.0	0.0	0.0	1.0	1.0	0.0	138.0	1.0	1.05	0.95;
	9.0	9.0	0.0	0.0	0.0	0.0	1.0	1.0	0.0	138.0	1.0	1.05	0.95;
	10.0	10.0	0.0	0.0	0.0	0.0	1.0	1.0	0.0	138.0	1.0	1.05	0.95;
	11.0	11.0	0.0	0.0	0.0	0.0	1.0	1.0	0.0	230.0	1.0	1.05	0.95;
	12.0	12.0	0.0	0.0	0.0	0.0	1.0	1.0	0.0	230.0	1.0	1.05	0.95;
	13.0	13.0	0.0	0.0	0.0	0.0	1.0	1.035	0.0	230.0	1.0	1.05	0.95;
	14.0	14.0	0.0	0.0	0.0	0.0	1.0	1.044	0.0	230.0	1.0	1.05	0.95;
	15.0	15.0	0.0	0.0	0.0	0.0	1.0	1.043	0.0	230.0	1.0	1.05	0.95;
	16.0	16.0	0.0	0.0	0.0	0.0	1.0	1.046	0.0	230.0	1.0	1.05	0.95;
	17.0	17.0	0.0	0.0	0.0	0.0	1.0	1.0	0.0	230.0	1.0	1.05	0.95;
	18.0	18.0	0.0	0.0	0.0	0.0	1.0	1.05	0.0	230.0	1.0	1.05	0.95;
	19.0	19.0	0.0	0.0	0.0	0.0	1.0	1.0	0.0	230.0	1.0	1.05	0.95;
	20.0	20.0	0.0	0.0	0.0	0.0	1.0	1.0	0.0	230.0	1.0	1.05	0.95;
	21.0	21.0	0.0	0.0	0.0	0.0	1.0	1.05	0.0	230.0	1.0	1.05	0.95;
	22.0	22.0	0.0	0.0	0.0	0.0	1.0	1.05	0.0	230.0	1.0	1.05	0.95;
	23.0	23.0	0.0	0.0	0.0	0.0	1.0	1.05	0.0	230.0	1.0	1.05	0.95;
	24.0	24.0	0.0	0.0	0.0	0.0	1.0	1.0	0.0	230.0	1.0	1.05	0.95;
	25.0	25.0	0.0	0.0	0.0	0.0	1.0	1.05	0.0	138.0	1.0	1.05	0.95;
	26.0	26.0	0.0	0.0	0.0	0.0	1.0	1.05	0.0	138.0	1.0	1.05	0.95;
	27.0	27.0	0.0	0.0	0.0	0.0	1.0	1.0	0.0	138.0	1.0	1.05	0.95;
	28.0	28.0	0.0	0.0	0.0	0.0	1.0	1.0	0.0	138.0	1.0	1.05	0.95;
	29.0	29.0	0.0	0.0	0.0	0.0	1.0	1.0	0.0	138.0	1.0	1.05	0.95;
	30.0	30.0	0.0	0.0	0.0	0.0	1.0	1.0	0.0	138.0	1.0	1.05	0.95;
	31.0	31.0	0.0	0.0	0.0	0.0	1.0	0.9699	0.0	138.0	1.0	1.05	0.95;
	32.0	32.0	0.0	0.0	0.0	0.0	1.0	1.0	0.0	138.0	1.0	1.05	0.95;
	33.0	33.0	0.0	0.0	0.0	0.0	1.0	1.0	0.0	138.0	1.0	1.05	0.95;
	34.0	34.0	0.0	0.0	0.0	0.0	1.0	1.0	0.0	138.0	1.0	1.05	0.95;
	35.0	35.0	0.0	0.0	0.0	0.0	1.0	1.0	0.0	230.0	1.0	1.05	0.95;
	36.0	36.0	0.0	0.0	0.0	0.0	1.0	1.0	0.0	230.0	1.0	1.05	0.95;
	37.0	37.0	0.0	0.0	0.0	0.0	1.0	1.05	0.0	230.0	1.0	1.05	0.95;
	38.0	38.0	0.0	0.0	0.0	0.0	1.0	1.05	0.0	230.0	1.0	1.05	0.95;
	39.0	39.0	0.0	0.0	0.0	0.0	1.0	1.044	0.0	230.0	1.0	1.05	0.95;
	40.0	40.0	0.0	0.0	0.0	0.0	1.0	1.047	0.0	230.0	1.0	1.05	0.95;
	41.0	41.0	0.0	0.0	0.0	0.0	1.0	1.0	0.0	230.0	1.0	1.05	0.95;
	42.0	42.0	0.0	0.0	0.0	0.0	1.0	1.05	0.0	230.0	1.0	1.05	0.95;
	43.0	43.0	0.0	0.0	0.0	0.0	1.0	1.0	0.0	230.0	1.0	1.05	0.95;
	44.0	44.0	0.0	0.0	0.0	0.0	1.0	1.0	0.0	230.0	1.0	1.05	0.95;
	45.0	45.0	0.0	0.0	0.0	0.0	1.0	1.05	0.0	230.0	1.0	1.05	0.95;
	46.0	46.0	0.0	0.0	0.0	0.0	1.0	1.05	0.0	230.0	1.0	1.05	0.95;
	47.0	47.0	0.0	0.0	0.0	0.0	1.0	1.05	0.0	230.0	1.0	1.05	0.95;
	48.0	48.0	0.0	0.0	0.0	0.0	1.0	1.0	0.0	230.0	1.0	1.05	0.95;
	49.0	49.0	0.0	0.0	0.0	0.0	1.0	1.05	0.0	138.0	1.0	1.05	0.95;
	50.0	50.0	0.0	0.0	0.0	0.0	1.0	1.05	0.0	138.0	1.0	1.05	0.95;
	51.0	51.0	0.0	0.0	0.0	0.0	1.0	1.0	0.0	138.0	1.0	1.05	0.95;
	52.0	52.0	0.0	0.0	0.0	0.0	1.0	1.0	0.0	138.0	1.0	1.05	0.95;
	53.0	53.0	0.0	0.0	0.0	0.0	1.0	1.0	0.0	138.0	1.0	1.05	0.95;
	54.0	54.0	0.0	0.0	0.0	0.0	1.0	1.0	0.0	138.0	1.0	1.05	0.95;
	55.0	55.0	0.0	0.0	0.0	0.0	1.0	0.9568	0.0	138.0	1.0	1.05	0.95;
	56.0	56.0	0.0	0.0	0.0	0.0	1.0	1.0	0.0	138.0	1.0	1.05	0.95;
	57.0	57.0	0.0	0.0	0.0	0.0	1.0	1.0	0.0	138.0	1.0	1.05	0.95;
	58.0	58.0	0.0	0.0	0.0	0.0	1.0	1.0	0.0	138.0	1.0	1.05	0.95;
	59.0	59.0	0.0	0.0	0.0	0.0	1.0	1.0	0.0	230.0	1.0	1.05	0.95;
	60.0	60.0	0.0	0.0	0.0	0.0	1.0	1.0	0.0	230.0	1.0	1.05	0.95;
	61.0	61.0	0.0	0.0	0.0	0.0	1.0	1.035	0.0	230.0	1.0	1.05	0.95;
	62.0	62.0	0.0	0.0	0.0	0.0	1.0	1.05	0.0	230.0	1.0	1.05	0.95;
	63.0	63.0	0.0	0.0	0.0	0.0	1.0	1.042	0.0	230.0	1.0	1.05	0.95;
	64.0	64.0	0.0	0.0	0.0	0.0	1.0	1.045	0.0	230.0	1.0	1.05	0.95;
	65.0	65.0	0.0	0.0	0.0	0.0	1.0	1.0	0.0	230.0	1.0	1.05	0.95;
	66.0	66.0	0.0	0.0	0.0	0.0	1.0	1.05	0.0	230.0	1.0	1.05	0.95;
	67.0	67.0	0.0	0.0	0.0	0.0	1.0	1.0	0.0	230.0	1.0	1.05	0.95;
	68.0	68.0	0.0	0.0	0.0	0.0	1.0	1.0	0.0	230.0	1.0	1.05	0.95;
	69.0	69.0	0.0	0.0	0.0	0.0	1.0	1.05	0.0	230.0	1.0	1.05	0.95;
	70.0	70.0	0.0	0.0	0.0	0.0	1.0	1.05	0.0	230.0	1.0	1.05	0.95;
	71.0	71.0	0.0	0.0	0.0	0.0	1.0	1.05	0.0	230.0	1.0	1.05	0.95;
	72.0	72.0	0.0	0.0	0.0	0.0	1.0	1.0	0.0	230.0	1.0	1.05	0.95;
	73.0	73.0	0.0	0.0	0.0	0.0	1.0	1.0	0.0	230.0	1.0	1.05	0.95;
];

%% generator data
%	bus	Pg	Qg	Qmax	Qmin	Vg	mBase	status	Pmax	Pmin	Pc1	Pc2	Qc1min	Qc1max	Qc2min	Qc2max	ramp_agc	ramp_10	ramp_30	ramp_q	apf
mpc.gen = [
	64.0	1.55	0.0	5.62	0.0	1.045	562.0	1.0	5.62	0.0	0.0	5.62	0.0	5.62	0.0	5.62	5.62	5.62	5.62	5.62	1.0;
	50.0	0.0	0.0	0.0	0.0	1.05	0.0	1.0	0.0	0.0	0.0	0.0	0.0	0.0	0.0	0.0	0.0	0.0	0.0	0.0	1.0;
	1.0	0.0	0.0	0.0	0.0	1.047	0.0	1.0	0.0	0.0	0.0	0.0	0.0	0.0	0.0	0.0	0.0	0.0	0.0	0.0	1.0;
	46.0	0.0	0.0	0.0	0.0	1.05	0.0	1.0	0.0	0.0	0.0	0.0	0.0	0.0	0.0	0.0	0.0	0.0	0.0	0.0	1.0;
	31.0	0.55	0.0	6.245	0.0	0.9699	624.5	1.0	6.245	0.0	0.0	6.245	0.0	6.245	0.0	6.245	6.245	6.245	6.245	6.245	1.0;
	45.0	2.97	0.0	1.617e-11	0.0	1.05	1.617e-9	1.0	1.617e-11	0.0	0.0	1.617e-11	0.0	1.617e-11	0.0	1.617e-11	1.617e-11	1.617e-11	1.617e-11	1.617e-11	1.0;
	31.0	0.0	0.0	0.0	0.0	0.9699	0.0	1.0	0.0	0.0	0.0	0.0	0.0	0.0	0.0	0.0	0.0	0.0	0.0	0.0	1.0;
	46.0	0.0	0.0	0.0	0.0	1.05	0.0	1.0	0.0	0.0	0.0	0.0	0.0	0.0	0.0	0.0	0.0	0.0	0.0	0.0	1.0;
	1.0	0.0	0.0	0.0	0.0	1.047	0.0	1.0	0.0	0.0	0.0	0.0	0.0	0.0	0.0	0.0	0.0	0.0	0.0	0.0	1.0;
	63.0	0.0	0.0	0.0	0.0	1.042	0.0	1.0	0.0	0.0	0.0	0.0	0.0	0.0	0.0	0.0	0.0	0.0	0.0	0.0	1.0;
	2.0	0.0	0.0	0.0	0.0	1.047	0.0	1.0	0.0	0.0	0.0	0.0	0.0	0.0	0.0	0.0	0.0	0.0	0.0	0.0	1.0;
	46.0	0.0	0.0	0.0	0.0	1.05	0.0	1.0	0.0	0.0	0.0	0.0	0.0	0.0	0.0	0.0	0.0	0.0	0.0	0.0	1.0;
	15.0	0.0	0.0	0.0	0.0	1.043	0.0	1.0	0.0	0.0	0.0	0.0	0.0	0.0	0.0	0.0	0.0	0.0	0.0	0.0	1.0;
	23.0	0.0	0.0	0.0	0.0	1.05	0.0	1.0	0.0	0.0	0.0	0.0	0.0	0.0	0.0	0.0	0.0	0.0	0.0	0.0	1.0;
	22.0	0.0	0.0	0.0	0.0	1.05	0.0	1.0	0.0	0.0	0.0	0.0	0.0	0.0	0.0	0.0	0.0	0.0	0.0	0.0	1.0;
	26.0	0.0	0.0	0.0	0.0	1.05	0.0	1.0	0.0	0.0	0.0	0.0	0.0	0.0	0.0	0.0	0.0	0.0	0.0	0.0	1.0;
	70.0	0.0	0.0	0.0	0.0	1.05	0.0	1.0	0.0	0.0	0.0	0.0	0.0	0.0	0.0	0.0	0.0	0.0	0.0	0.0	1.0;
	63.0	0.0	0.0	0.0	0.0	1.042	0.0	1.0	0.0	0.0	0.0	0.0	0.0	0.0	0.0	0.0	0.0	0.0	0.0	0.0	1.0;
	7.0	3.55	0.0	6.489	0.0	1.05	648.9	1.0	6.489	0.0	0.0	6.489	0.0	6.489	0.0	6.489	6.489	6.489	6.489	6.489	1.0;
	71.0	3.55	0.0	3.867	0.0	1.05	386.7	1.0	3.867	0.0	0.0	3.867	0.0	3.867	0.0	3.867	3.867	3.867	3.867	3.867	1.0;
	63.0	0.0	0.0	0.0	0.0	1.042	0.0	1.0	0.0	0.0	0.0	0.0	0.0	0.0	0.0	0.0	0.0	0.0	0.0	0.0	1.0;
	49.0	0.0	0.0	0.0	0.0	1.05	0.0	1.0	0.0	0.0	0.0	0.0	0.0	0.0	0.0	0.0	0.0	0.0	0.0	0.0	1.0;
	46.0	0.0	0.0	0.0	0.0	1.05	0.0	1.0	0.0	0.0	0.0	0.0	0.0	0.0	0.0	0.0	0.0	0.0	0.0	0.0	1.0;
	13.0	0.0	0.0	0.0	0.0	1.035	0.0	1.0	0.0	0.0	0.0	0.0	0.0	0.0	0.0	0.0	0.0	0.0	0.0	0.0	1.0;
	70.0	0.0	0.0	0.0	0.0	1.05	0.0	1.0	0.0	0.0	0.0	0.0	0.0	0.0	0.0	0.0	0.0	0.0	0.0	0.0	1.0;
	47.0	0.0	0.0	0.0	0.0	1.05	0.0	1.0	0.0	0.0	0.0	0.0	0.0	0.0	0.0	0.0	0.0	0.0	0.0	0.0	1.0;
	22.0	0.0	0.0	0.0	0.0	1.05	0.0	1.0	0.0	0.0	0.0	0.0	0.0	0.0	0.0	0.0	0.0	0.0	0.0	0.0	1.0;
	63.0	0.0	0.0	0.0	0.0	1.042	0.0	1.0	0.0	0.0	0.0	0.0	0.0	0.0	0.0	0.0	0.0	0.0	0.0	0.0	1.0;
	62.0	0.0	0.0	6.882	0.0	1.05	688.2	1.0	6.882	0.0	0.0	6.882	0.0	6.882	0.0	6.882	6.882	6.882	6.882	6.882	1.0;
	37.0	3.55	0.0	8.875	0.0	1.05	887.5	1.0	8.875	0.0	0.0	8.875	0.0	8.875	0.0	8.875	8.875	8.875	8.875	8.875	1.0;
	69.0	3.55	0.0	1.581e-11	0.0	1.05	1.581e-9	1.0	1.581e-11	0.0	0.0	1.581e-11	0.0	1.581e-11	0.0	1.581e-11	1.581e-11	1.581e-11	1.581e-11	1.581e-11	1.0;
	47.0	0.0	0.0	0.0	0.0	1.05	0.0	1.0	0.0	0.0	0.0	0.0	0.0	0.0	0.0	0.0	0.0	0.0	0.0	0.0	1.0;
	50.0	0.0	0.0	0.0	0.0	1.05	0.0	1.0	0.0	0.0	0.0	0.0	0.0	0.0	0.0	0.0	0.0	0.0	0.0	0.0	1.0;
	49.0	0.0	0.0	0.0	0.0	1.05	0.0	1.0	0.0	0.0	0.0	0.0	0.0	0.0	0.0	0.0	0.0	0.0	0.0	0.0	1.0;
	63.0	0.0	0.0	0.0	0.0	1.042	0.0	1.0	0.0	0.0	0.0	0.0	0.0	0.0	0.0	0.0	0.0	0.0	0.0	0.0	1.0;
	39.0	0.0	0.0	0.0	0.0	1.044	0.0	1.0	0.0	0.0	0.0	0.0	0.0	0.0	0.0	0.0	0.0	0.0	0.0	0.0	1.0;
	38.0	0.0	0.0	6.614	0.0	1.05	661.4	1.0	6.614	0.0	0.0	6.614	0.0	6.614	0.0	6.614	6.614	6.614	6.614	6.614	1.0;
	25.0	0.0	0.0	0.0	0.0	1.05	0.0	1.0	0.0	0.0	0.0	0.0	0.0	0.0	0.0	0.0	0.0	0.0	0.0	0.0	1.0;
	25.0	0.0	0.0	0.0	0.0	1.05	0.0	1.0	0.0	0.0	0.0	0.0	0.0	0.0	0.0	0.0	0.0	0.0	0.0	0.0	1.0;
	37.0	0.0	0.0	0.0	0.0	1.05	0.0	1.0	0.0	0.0	0.0	0.0	0.0	0.0	0.0	0.0	0.0	0.0	0.0	0.0	1.0;
	16.0	1.55	0.0	5.62	0.0	1.046	562.0	1.0	5.62	0.0	0.0	5.62	0.0	5.62	0.0	5.62	5.62	5.62	5.62	5.62	1.0;
	70.0	0.5	-0.0546	9.366e-12	0.0	1.05	9.366e-10	1.0	9.366e-12	0.0	0.0	9.366e-12	0.0	9.366e-12	0.0	9.366e-12	9.366e-12	9.366e-12	9.366e-12	9.366e-12	1.0;
	71.0	0.0	0.0	0.0	0.0	1.05	0.0	1.0	0.0	0.0	0.0	0.0	0.0	0.0	0.0	0.0	0.0	0.0	0.0	0.0	1.0;
	49.0	0.08	0.0	5.249	0.0	1.05	524.9	1.0	5.249	0.0	0.0	5.249	0.0	5.249	0.0	5.249	5.249	5.249	5.249	5.249	1.0;
	70.0	0.0	0.0	0.0	0.0	1.05	0.0	1.0	0.0	0.0	0.0	0.0	0.0	0.0	0.0	0.0	0.0	0.0	0.0	0.0	1.0;
	70.0	0.0	0.0	0.0	0.0	1.05	0.0	1.0	0.0	0.0	0.0	0.0	0.0	0.0	0.0	0.0	0.0	0.0	0.0	0.0	1.0;
	55.0	0.0	0.0	0.0	0.0	0.9568	0.0	1.0	0.0	0.0	0.0	0.0	0.0	0.0	0.0	0.0	0.0	0.0	0.0	0.0	1.0;
	39.0	0.0	0.0	0.0	0.0	1.044	0.0	1.0	0.0	0.0	0.0	0.0	0.0	0.0	0.0	0.0	0.0	0.0	0.0	0.0	1.0;
	26.0	0.0	0.0	0.0	0.0	1.05	0.0	1.0	0.0	0.0	0.0	0.0	0.0	0.0	0.0	0.0	0.0	0.0	0.0	0.0	1.0;
	2.0	0.0	0.0	0.0	0.0	1.047	0.0	1.0	0.0	0.0	0.0	0.0	0.0	0.0	0.0	0.0	0.0	0.0	0.0	0.0	1.0;
	40.0	1.55	0.0	5.62	0.0	1.047	562.0	1.0	5.62	0.0	0.0	5.62	0.0	5.62	0.0	5.62	5.62	5.62	5.62	5.62	1.0;
	39.0	0.5	0.1605	8.26	0.0	1.044	826.0	1.0	8.26	0.0	0.0	8.26	0.0	8.26	0.0	8.26	8.26	8.26	8.26	8.26	1.0;
	2.0	0.76	-0.01875	4.987	0.0	1.047	498.7	1.0	4.987	0.0	0.0	4.987	0.0	4.987	0.0	4.987	4.987	4.987	4.987	4.987	1.0;
	47.0	0.0	0.0	0.0	0.0	1.05	0.0	1.0	0.0	0.0	0.0	0.0	0.0	0.0	0.0	0.0	0.0	0.0	0.0	0.0	1.0;
	26.0	0.76	0.02196	5.031	0.0	1.05	503.1	1.0	5.031	0.0	0.0	5.031	0.0	5.031	0.0	5.031	5.031	5.031	5.031	5.031	1.0;
	22.0	0.0	0.0	0.0	0.0	1.05	0.0	1.0	0.0	0.0	0.0	0.0	0.0	0.0	0.0	0.0	0.0	0.0	0.0	0.0	1.0;
	25.0	0.08	0.0	5.156	0.0	1.05	515.6	1.0	5.156	0.0	0.0	5.156	0.0	5.156	0.0	5.156	5.156	5.156	5.156	5.156	1.0;
	2.0	0.0	0.0	0.0	0.0	1.047	0.0	1.0	0.0	0.0	0.0	0.0	0.0	0.0	0.0	0.0	0.0	0.0	0.0	0.0	1.0;
	42.0	3.55	0.0	6.66	0.0	1.05	666.0	1.0	6.66	0.0	0.0	6.66	0.0	6.66	0.0	6.66	6.66	6.66	6.66	6.66	1.0;
	22.0	0.5	-0.06794	1.038e-11	0.0	1.05	1.038e-9	1.0	1.038e-11	0.0	0.0	1.038e-11	0.0	1.038e-11	0.0	1.038e-11	1.038e-11	1.038e-11	1.038e-11	1.038e-11	1.0;
	23.0	0.0	0.0	0.0	0.0	1.05	0.0	1.0	0.0	0.0	0.0	0.0	0.0	0.0	0.0	0.0	0.0	0.0	0.0	0.0	1.0;
	14.0	0.0	0.0	6.882	0.0	1.044	688.2	1.0	6.882	0.0	0.0	6.882	0.0	6.882	0.0	6.882	6.882	6.882	6.882	6.882	1.0;
	13.0	0.0	0.0	0.0	0.0	1.035	0.0	1.0	0.0	0.0	0.0	0.0	0.0	0.0	0.0	0.0	0.0	0.0	0.0	0.0	1.0;
	39.0	0.0	0.0	0.0	0.0	1.044	0.0	1.0	0.0	0.0	0.0	0.0	0.0	0.0	0.0	0.0	0.0	0.0	0.0	0.0	1.0;
	13.0	0.55	0.1902	9.421	0.0	1.035	942.1	1.0	9.421	0.0	0.0	9.421	0.0	9.421	0.0	9.421	9.421	9.421	9.421	9.421	1.0;
	23.0	0.55	-0.02881	3.867	0.0	1.05	386.7	1.0	3.867	0.0	0.0	3.867	0.0	3.867	0.0	3.867	3.867	3.867	3.867	3.867	1.0;
	63.0	0.0	0.0	0.0	0.0	1.042	0.0	1.0	0.0	0.0	0.0	0.0	0.0	0.0	0.0	0.0	0.0	0.0	0.0	0.0	1.0;
	47.0	0.0	0.0	0.0	0.0	1.05	0.0	1.0	0.0	0.0	0.0	0.0	0.0	0.0	0.0	0.0	0.0	0.0	0.0	0.0	1.0;
	47.0	1.55	0.0	2.124	0.0	1.05	212.4	1.0	2.124	0.0	0.0	2.124	0.0	2.124	0.0	2.124	2.124	2.124	2.124	2.124	1.0;
	47.0	0.0	0.0	0.0	0.0	1.05	0.0	1.0	0.0	0.0	0.0	0.0	0.0	0.0	0.0	0.0	0.0	0.0	0.0	0.0	1.0;
	49.0	0.0	0.0	0.0	0.0	1.05	0.0	1.0	0.0	0.0	0.0	0.0	0.0	0.0	0.0	0.0	0.0	0.0	0.0	0.0	1.0;
	61.0	3.55	0.0	9.421	0.0	1.035	942.1	1.0	9.421	0.0	0.0	9.421	0.0	9.421	0.0	9.421	9.421	9.421	9.421	9.421	1.0;
	46.0	0.5	-0.06973	1.136e-11	0.0	1.05	1.136e-9	1.0	1.136e-11	0.0	0.0	1.136e-11	0.0	1.136e-11	0.0	1.136e-11	1.136e-11	1.136e-11	1.136e-11	1.136e-11	1.0;
	1.0	0.08	0.04668	5.249	0.0	1.047	524.9	1.0	5.249	0.0	0.0	5.249	0.0	5.249	0.0	5.249	5.249	5.249	5.249	5.249	1.0;
	13.0	0.0	0.0	0.0	0.0	1.035	0.0	1.0	0.0	0.0	0.0	0.0	0.0	0.0	0.0	0.0	0.0	0.0	0.0	0.0	1.0;
	39.0	0.0	0.0	0.0	0.0	1.044	0.0	1.0	0.0	0.0	0.0	0.0	0.0	0.0	0.0	0.0	0.0	0.0	0.0	0.0	1.0;
	22.0	0.0	0.0	0.0	0.0	1.05	0.0	1.0	0.0	0.0	0.0	0.0	0.0	0.0	0.0	0.0	0.0	0.0	0.0	0.0	1.0;
	66.0	3.55	0.0	8.249	0.0	1.05	824.9	1.0	8.249	0.0	0.0	8.249	0.0	8.249	0.0	8.249	8.249	8.249	8.249	8.249	1.0;
	25.0	0.0	0.0	0.0	0.0	1.05	0.0	1.0	0.0	0.0	0.0	0.0	0.0	0.0	0.0	0.0	0.0	0.0	0.0	0.0	1.0;
	23.0	0.0	0.0	0.0	0.0	1.05	0.0	1.0	0.0	0.0	0.0	0.0	0.0	0.0	0.0	0.0	0.0	0.0	0.0	0.0	1.0;
	15.0	0.0	0.0	0.0	0.0	1.043	0.0	1.0	0.0	0.0	0.0	0.0	0.0	0.0	0.0	0.0	0.0	0.0	0.0	0.0	1.0;
	55.0	0.55	0.0	5.662	0.0	0.9568	566.2	1.0	5.662	0.0	0.0	5.662	0.0	5.662	0.0	5.662	5.662	5.662	5.662	5.662	1.0;
	70.0	0.0	0.0	0.0	0.0	1.05	0.0	1.0	0.0	0.0	0.0	0.0	0.0	0.0	0.0	0.0	0.0	0.0	0.0	0.0	1.0;
	63.0	0.0	0.0	0.0	0.0	1.042	0.0	1.0	0.0	0.0	0.0	0.0	0.0	0.0	0.0	0.0	0.0	0.0	0.0	0.0	1.0;
	15.0	0.05	0.0	8.651	0.0	1.043	865.1	1.0	8.651	0.0	0.0	8.651	0.0	8.651	0.0	8.651	8.651	8.651	8.651	8.651	1.0;
	50.0	0.55	0.09843	4.987	0.0	1.05	498.7	1.0	4.987	0.0	0.0	4.987	0.0	4.987	0.0	4.987	4.987	4.987	4.987	4.987	1.0;
	63.0	0.05	0.06029	8.651	0.0	1.042	865.1	1.0	8.651	0.0	0.0	8.651	0.0	8.651	0.0	8.651	8.651	8.651	8.651	8.651	1.0;
	26.0	0.0	0.0	0.0	0.0	1.05	0.0	1.0	0.0	0.0	0.0	0.0	0.0	0.0	0.0	0.0	0.0	0.0	0.0	0.0	1.0;
	50.0	0.0	0.0	0.0	0.0	1.05	0.0	1.0	0.0	0.0	0.0	0.0	0.0	0.0	0.0	0.0	0.0	0.0	0.0	0.0	1.0;
	46.0	0.0	0.0	0.0	0.0	1.05	0.0	1.0	0.0	0.0	0.0	0.0	0.0	0.0	0.0	0.0	0.0	0.0	0.0	0.0	1.0;
	1.0	0.0	0.0	0.0	0.0	1.047	0.0	1.0	0.0	0.0	0.0	0.0	0.0	0.0	0.0	0.0	0.0	0.0	0.0	0.0	1.0;
	22.0	0.0	0.0	0.0	0.0	1.05	0.0	1.0	0.0	0.0	0.0	0.0	0.0	0.0	0.0	0.0	0.0	0.0	0.0	0.0	1.0;
	18.0	3.55	0.0	6.66	0.0	1.05	666.0	1.0	6.66	0.0	0.0	6.66	0.0	6.66	0.0	6.66	6.66	6.66	6.66	6.66	1.0;
	21.0	4.0	0.0	2.083e-11	0.0	1.05	2.083e-9	1.0	2.083e-11	0.0	0.0	2.083e-11	0.0	2.083e-11	0.0	2.083e-11	2.083e-11	2.083e-11	2.083e-11	2.083e-11	1.0;
	37.0	0.0	0.0	0.0	0.0	1.05	0.0	1.0	0.0	0.0	0.0	0.0	0.0	0.0	0.0	0.0	0.0	0.0	0.0	0.0	1.0;
	23.0	0.0	0.0	0.0	0.0	1.05	0.0	1.0	0.0	0.0	0.0	0.0	0.0	0.0	0.0	0.0	0.0	0.0	0.0	0.0	1.0;
];

%% branch data
%	fbus	tbus	r	x	b	rateA	rateB	rateC	ratio	angle	status	angmin	angmax
mpc.branch = [
	39.0	45.0	3.174	25.92	0.0	2.887	2.887	2.887	1.0	0.0	1.0	-1.571	1.571;
	8.0	10.0	8.189	31.42	0.0	1.01	1.01	1.01	1.0	0.0	1.0	-1.571	1.571;
	29.0	34.0	4.38	16.76	0.0	1.01	1.01	1.01	1.0	0.0	1.0	-1.571	1.571;
	50.0	52.0	6.285	24.19	0.0	1.01	1.01	1.01	1.0	0.0	1.0	-1.571	1.571;
	7.0	8.0	3.047	11.62	0.0	1.01	1.01	1.01	1.0	0.0	1.0	-1.571	1.571;
	39.0	45.0	3.174	25.92	0.0	2.887	2.887	2.887	1.0	0.0	1.0	-1.571	1.571;
	63.0	69.0	3.174	25.92	0.0	2.887	2.887	2.887	1.0	0.0	1.0	-1.571	1.571;
	8.0	9.0	8.189	31.42	0.0	1.01	1.01	1.01	1.0	0.0	1.0	-1.571	1.571;
	43.0	44.0	2.645	21.16	0.0	2.887	2.887	2.887	1.0	0.0	1.0	-1.571	1.571;
	25.0	27.0	10.47	40.18	0.0	1.01	1.01	1.01	1.0	0.0	1.0	-1.571	1.571;
	37.0	47.0	5.819	46.02	0.0	2.887	2.887	2.887	1.0	0.0	1.0	-1.571	1.571;
	1.0	5.0	4.19	16.19	0.0	1.01	1.01	1.01	1.0	0.0	1.0	-1.571	1.571;
	12.0	13.0	3.174	25.39	0.0	2.887	2.887	2.887	1.0	0.0	1.0	-1.571	1.571;
	26.0	30.0	9.522	36.56	0.0	1.01	1.01	1.01	1.0	0.0	1.0	-1.571	1.571;
	2.0	6.0	9.522	36.56	0.0	1.01	1.01	1.01	1.0	0.0	1.0	-1.571	1.571;
	67.0	68.0	2.645	21.16	0.0	2.887	2.887	2.887	1.0	0.0	1.0	-1.571	1.571;
	51.0	57.0	5.904	22.66	0.0	1.01	1.01	1.01	1.0	0.0	1.0	-1.571	1.571;
	42.0	45.0	1.587	13.75	0.0	2.887	2.887	2.887	1.0	0.0	1.0	-1.571	1.571;
	20.0	23.0	1.587	11.64	0.0	2.887	2.887	2.887	1.0	0.0	1.0	-1.571	1.571;
	71.0	73.0	0.0	4.761	0.0	4.168	4.168	4.168	1.0	0.0	1.0	-1.571	1.571;
	56.0	58.0	8.189	31.42	0.0	1.01	1.01	1.01	1.0	0.0	1.0	-1.571	1.571;
	68.0	71.0	1.587	11.64	0.0	2.887	2.887	2.887	1.0	0.0	1.0	-1.571	1.571;
	11.0	14.0	2.645	22.22	0.0	2.887	2.887	2.887	1.0	0.0	1.0	-1.571	1.571;
	42.0	45.0	1.587	13.75	0.0	2.887	2.887	2.887	1.0	0.0	1.0	-1.571	1.571;
	60.0	71.0	6.348	51.31	0.0	2.887	2.887	2.887	1.0	0.0	1.0	-1.571	1.571;
	4.0	9.0	5.142	19.81	0.0	1.01	1.01	1.01	1.0	0.0	1.0	-1.571	1.571;
	19.0	20.0	2.645	21.16	0.0	2.887	2.887	2.887	1.0	0.0	1.0	-1.571	1.571;
	41.0	46.0	7.406	55.54	0.0	2.887	2.887	2.887	1.0	0.0	1.0	-1.571	1.571;
	63.0	72.0	3.703	27.51	0.0	2.887	2.887	2.887	1.0	0.0	1.0	-1.571	1.571;
	32.0	34.0	8.189	31.42	0.0	1.01	1.01	1.01	1.0	0.0	1.0	-1.571	1.571;
	19.0	20.0	2.645	21.16	0.0	2.887	2.887	2.887	1.0	0.0	1.0	-1.571	1.571;
	67.0	68.0	2.645	21.16	0.0	2.887	2.887	2.887	1.0	0.0	1.0	-1.571	1.571;
	39.0	48.0	3.703	27.51	0.0	2.887	2.887	2.887	1.0	0.0	1.0	-1.571	1.571;
	31.0	32.0	3.047	11.62	0.0	1.01	1.01	1.01	1.0	0.0	1.0	-1.571	1.571;
	69.0	70.0	4.761	35.97	0.0	2.887	2.887	2.887	1.0	0.0	1.0	-1.571	1.571;
	1.0	2.0	0.5713	2.666	0.0	1.01	1.01	1.01	1.0	0.0	1.0	-1.571	1.571;
	68.0	71.0	1.587	11.64	0.0	2.887	2.887	2.887	1.0	0.0	1.0	-1.571	1.571;
	45.0	46.0	4.761	35.97	0.0	2.887	2.887	2.887	1.0	0.0	1.0	-1.571	1.571;
	25.0	26.0	0.5713	2.666	0.0	1.01	1.01	1.01	1.0	0.0	1.0	-1.571	1.571;
	13.0	39.0	5.29	39.67	0.0	2.887	2.887	2.887	1.0	0.0	1.0	-1.571	1.571;
	39.0	40.0	1.058	8.993	0.0	2.887	2.887	2.887	1.0	0.0	1.0	-1.571	1.571;
	13.0	23.0	5.819	46.02	0.0	2.887	2.887	2.887	1.0	0.0	1.0	-1.571	1.571;
	63.0	64.0	1.058	8.993	0.0	2.887	2.887	2.887	1.0	0.0	1.0	-1.571	1.571;
	49.0	50.0	0.5713	2.666	0.0	1.01	1.01	1.01	1.0	0.0	1.0	-1.571	1.571;
	63.0	69.0	3.174	25.92	0.0	2.887	2.887	2.887	1.0	0.0	1.0	-1.571	1.571;
	62.0	64.0	2.645	31.21	0.0	2.887	2.887	2.887	1.0	0.0	1.0	-1.571	1.571;
	15.0	21.0	3.174	25.92	0.0	2.887	2.887	2.887	1.0	0.0	1.0	-1.571	1.571;
	11.0	13.0	3.174	25.39	0.0	2.887	2.887	2.887	1.0	0.0	1.0	-1.571	1.571;
	26.0	28.0	6.285	24.19	0.0	1.01	1.01	1.01	1.0	0.0	1.0	-1.571	1.571;
	25.0	29.0	4.19	16.19	0.0	1.01	1.01	1.01	1.0	0.0	1.0	-1.571	1.571;
	60.0	61.0	3.174	25.39	0.0	2.887	2.887	2.887	1.0	0.0	1.0	-1.571	1.571;
	36.0	47.0	6.348	51.31	0.0	2.887	2.887	2.887	1.0	0.0	1.0	-1.571	1.571;
	18.0	21.0	1.587	13.75	0.0	2.887	2.887	2.887	1.0	0.0	1.0	-1.571	1.571;
	65.0	66.0	1.058	7.406	0.0	2.887	2.887	2.887	1.0	0.0	1.0	-1.571	1.571;
	2.0	4.0	6.285	24.19	0.0	1.01	1.01	1.01	1.0	0.0	1.0	-1.571	1.571;
	52.0	57.0	5.142	19.81	0.0	1.01	1.01	1.01	1.0	0.0	1.0	-1.571	1.571;
	40.0	43.0	1.587	12.17	0.0	2.887	2.887	2.887	1.0	0.0	1.0	-1.571	1.571;
	65.0	70.0	7.406	55.54	0.0	2.887	2.887	2.887	1.0	0.0	1.0	-1.571	1.571;
	15.0	21.0	3.174	25.92	0.0	2.887	2.887	2.887	1.0	0.0	1.0	-1.571	1.571;
	35.0	37.0	3.174	25.39	0.0	2.887	2.887	2.887	1.0	0.0	1.0	-1.571	1.571;
	12.0	23.0	6.348	51.31	0.0	2.887	2.887	2.887	1.0	0.0	1.0	-1.571	1.571;
	21.0	22.0	4.761	35.97	0.0	2.887	2.887	2.887	1.0	0.0	1.0	-1.571	1.571;
	41.0	42.0	1.058	7.406	0.0	2.887	2.887	2.887	1.0	0.0	1.0	-1.571	1.571;
	59.0	61.0	3.174	25.39	0.0	2.887	2.887	2.887	1.0	0.0	1.0	-1.571	1.571;
	5.0	10.0	4.38	16.76	0.0	1.01	1.01	1.01	1.0	0.0	1.0	-1.571	1.571;
	28.0	33.0	5.142	19.81	0.0	1.01	1.01	1.01	1.0	0.0	1.0	-1.571	1.571;
	53.0	58.0	4.38	16.76	0.0	1.01	1.01	1.01	1.0	0.0	1.0	-1.571	1.571;
	44.0	47.0	1.587	11.64	0.0	2.887	2.887	2.887	1.0	0.0	1.0	-1.571	1.571;
	17.0	22.0	7.406	55.54	0.0	2.887	2.887	2.887	1.0	0.0	1.0	-1.571	1.571;
	18.0	21.0	1.587	13.75	0.0	2.887	2.887	2.887	1.0	0.0	1.0	-1.571	1.571;
	66.0	47.0	6.877	55.02	0.0	2.887	2.887	2.887	1.0	0.0	1.0	-1.571	1.571;
	66.0	69.0	1.587	13.75	0.0	2.887	2.887	2.887	1.0	0.0	1.0	-1.571	1.571;
	20.0	23.0	1.587	11.64	0.0	2.887	2.887	2.887	1.0	0.0	1.0	-1.571	1.571;
	43.0	44.0	2.645	21.16	0.0	2.887	2.887	2.887	1.0	0.0	1.0	-1.571	1.571;
	50.0	54.0	9.522	36.56	0.0	1.01	1.01	1.01	1.0	0.0	1.0	-1.571	1.571;
	27.0	33.0	5.904	22.66	0.0	1.01	1.01	1.01	1.0	0.0	1.0	-1.571	1.571;
	15.0	24.0	3.703	27.51	0.0	2.887	2.887	2.887	1.0	0.0	1.0	-1.571	1.571;
	14.0	16.0	2.645	31.21	0.0	2.887	2.887	2.887	1.0	0.0	1.0	-1.571	1.571;
	61.0	71.0	5.819	46.02	0.0	2.887	2.887	2.887	1.0	0.0	1.0	-1.571	1.571;
	16.0	19.0	1.587	12.17	0.0	2.887	2.887	2.887	1.0	0.0	1.0	-1.571	1.571;
	30.0	34.0	2.666	11.62	0.0	1.01	1.01	1.01	1.0	0.0	1.0	-1.571	1.571;
	36.0	37.0	3.174	25.39	0.0	2.887	2.887	2.887	1.0	0.0	1.0	-1.571	1.571;
	49.0	53.0	4.19	16.19	0.0	1.01	1.01	1.01	1.0	0.0	1.0	-1.571	1.571;
	7.0	27.0	7.998	30.66	0.0	1.01	1.01	1.01	1.0	0.0	1.0	-1.571	1.571;
	6.0	10.0	2.666	11.62	0.0	1.01	1.01	1.01	1.0	0.0	1.0	-1.571	1.571;
	15.0	16.0	1.058	8.993	0.0	2.887	2.887	2.887	1.0	0.0	1.0	-1.571	1.571;
	40.0	41.0	1.587	13.75	0.0	2.887	2.887	2.887	1.0	0.0	1.0	-1.571	1.571;
	64.0	65.0	1.587	13.75	0.0	2.887	2.887	2.887	1.0	0.0	1.0	-1.571	1.571;
	49.0	51.0	10.47	40.18	0.0	1.01	1.01	1.01	1.0	0.0	1.0	-1.571	1.571;
	16.0	17.0	1.587	13.75	0.0	2.887	2.887	2.887	1.0	0.0	1.0	-1.571	1.571;
	55.0	56.0	3.047	11.62	0.0	1.01	1.01	1.01	1.0	0.0	1.0	-1.571	1.571;
	54.0	58.0	2.666	11.62	0.0	1.01	1.01	1.01	1.0	0.0	1.0	-1.571	1.571;
	23.0	41.0	5.29	39.15	0.0	2.887	2.887	2.887	1.0	0.0	1.0	-1.571	1.571;
	1.0	3.0	10.47	40.18	0.0	1.01	1.01	1.01	1.0	0.0	1.0	-1.571	1.571;
	32.0	33.0	8.189	31.42	0.0	1.01	1.01	1.01	1.0	0.0	1.0	-1.571	1.571;
	17.0	18.0	1.058	7.406	0.0	2.887	2.887	2.887	1.0	0.0	1.0	-1.571	1.571;
	35.0	38.0	2.645	22.22	0.0	2.887	2.887	2.887	1.0	0.0	1.0	-1.571	1.571;
	66.0	69.0	1.587	13.75	0.0	2.887	2.887	2.887	1.0	0.0	1.0	-1.571	1.571;
	73.0	21.0	6.348	51.31	0.0	2.887	2.887	2.887	1.0	0.0	1.0	-1.571	1.571;
	3.0	9.0	5.904	22.66	0.0	1.01	1.01	1.01	1.0	0.0	1.0	-1.571	1.571;
	38.0	40.0	2.645	31.21	0.0	2.887	2.887	2.887	1.0	0.0	1.0	-1.571	1.571;
	44.0	47.0	1.587	11.64	0.0	2.887	2.887	2.887	1.0	0.0	1.0	-1.571	1.571;
	64.0	67.0	1.587	12.17	0.0	2.887	2.887	2.887	1.0	0.0	1.0	-1.571	1.571;
	59.0	62.0	2.645	22.22	0.0	2.887	2.887	2.887	1.0	0.0	1.0	-1.571	1.571;
	56.0	57.0	8.189	31.42	0.0	1.01	1.01	1.01	1.0	0.0	1.0	-1.571	1.571;
	11.0	9.0	2.0e-5	0.00084	0.0	0.004	0.004	0.004	1.0	0.0	1.0	-0.7854	0.7854;
	35.0	33.0	2.0e-5	0.00084	0.0	0.004	0.004	0.004	1.0	0.0	1.0	-0.7854	0.7854;
	11.0	10.0	2.0e-5	0.00084	0.0	0.004	0.004	0.004	1.0	0.0	1.0	-0.7854	0.7854;
	24.0	3.0	2.0e-5	0.00084	0.0	0.004	0.004	0.004	1.0	0.0	1.0	-0.7854	0.7854;
	48.0	27.0	2.0e-5	0.00084	0.0	0.004	0.004	0.004	1.0	0.0	1.0	-0.7854	0.7854;
	60.0	57.0	2.0e-5	0.00084	0.0	0.004	0.004	0.004	1.0	0.0	1.0	-0.7854	0.7854;
	35.0	34.0	2.0e-5	0.00084	0.0	0.004	0.004	0.004	1.0	0.0	1.0	-0.7854	0.7854;
	12.0	10.0	2.0e-5	0.00084	0.0	0.004	0.004	0.004	1.0	0.0	1.0	-0.7854	0.7854;
	60.0	58.0	2.0e-5	0.00084	0.0	0.004	0.004	0.004	1.0	0.0	1.0	-0.7854	0.7854;
	59.0	58.0	2.0e-5	0.00084	0.0	0.004	0.004	0.004	1.0	0.0	1.0	-0.7854	0.7854;
	36.0	34.0	2.0e-5	0.00084	0.0	0.004	0.004	0.004	1.0	0.0	1.0	-0.7854	0.7854;
	59.0	57.0	2.0e-5	0.00084	0.0	0.004	0.004	0.004	1.0	0.0	1.0	-0.7854	0.7854;
	36.0	33.0	2.0e-5	0.00084	0.0	0.004	0.004	0.004	1.0	0.0	1.0	-0.7854	0.7854;
	12.0	9.0	2.0e-5	0.00084	0.0	0.004	0.004	0.004	1.0	0.0	1.0	-0.7854	0.7854;
	72.0	51.0	2.0e-5	0.00084	0.0	0.004	0.004	0.004	1.0	0.0	1.0	-0.7854	0.7854;
];

%%-----  OPF Data  -----%%
%% generator cost data
%	1	startup	shutdown	n	x1	y1	...	xn	yn
%	2	startup	shutdown	n	c(n-1)	...	c0
mpc.gencost = [
	2.0	0.0	0.0	1.0	58.38;
	2.0	0.0	0.0	1.0	58.38;
	2.0	0.0	0.0	1.0	58.38;
	2.0	0.0	0.0	1.0	58.38;
	2.0	0.0	0.0	1.0	58.38;
	2.0	0.0	0.0	1.0	58.38;
	2.0	0.0	0.0	1.0	58.38;
	2.0	0.0	0.0	1.0	58.38;
	2.0	0.0	0.0	1.0	58.38;
	2.0	0.0	0.0	1.0	58.38;
	2.0	0.0	0.0	1.0	58.38;
	2.0	0.0	0.0	1.0	58.38;
	2.0	0.0	0.0	1.0	58.38;
	2.0	0.0	0.0	1.0	58.38;
	2.0	0.0	0.0	1.0	58.38;
	2.0	0.0	0.0	1.0	58.38;
	2.0	0.0	0.0	1.0	58.38;
	2.0	0.0	0.0	1.0	58.38;
	2.0	0.0	0.0	1.0	58.38;
	2.0	0.0	0.0	1.0	58.38;
	2.0	0.0	0.0	1.0	58.38;
	2.0	0.0	0.0	1.0	58.38;
	2.0	0.0	0.0	1.0	58.38;
	2.0	0.0	0.0	1.0	58.38;
	2.0	0.0	0.0	1.0	58.38;
	2.0	0.0	0.0	1.0	58.38;
	2.0	0.0	0.0	1.0	58.38;
	2.0	0.0	0.0	1.0	58.38;
	2.0	0.0	0.0	1.0	58.38;
	2.0	0.0	0.0	1.0	58.38;
	2.0	0.0	0.0	1.0	58.38;
	2.0	0.0	0.0	1.0	58.38;
	2.0	0.0	0.0	1.0	58.38;
	2.0	0.0	0.0	1.0	58.38;
	2.0	0.0	0.0	1.0	58.38;
	2.0	0.0	0.0	1.0	58.38;
	2.0	0.0	0.0	1.0	58.38;
	2.0	0.0	0.0	1.0	58.38;
	2.0	0.0	0.0	1.0	58.38;
	2.0	0.0	0.0	1.0	58.38;
	2.0	0.0	0.0	1.0	58.38;
	2.0	0.0	0.0	1.0	58.38;
	2.0	0.0	0.0	1.0	58.38;
	2.0	0.0	0.0	1.0	58.38;
	2.0	0.0	0.0	1.0	58.38;
	2.0	0.0	0.0	1.0	58.38;
	2.0	0.0	0.0	1.0	58.38;
	2.0	0.0	0.0	1.0	58.38;
	2.0	0.0	0.0	1.0	58.38;
	2.0	0.0	0.0	1.0	58.38;
	2.0	0.0	0.0	1.0	58.38;
	2.0	0.0	0.0	1.0	58.38;
	2.0	0.0	0.0	1.0	58.38;
	2.0	0.0	0.0	1.0	58.38;
	2.0	0.0	0.0	1.0	58.38;
	2.0	0.0	0.0	1.0	58.38;
	2.0	0.0	0.0	1.0	58.38;
	2.0	0.0	0.0	1.0	58.38;
	2.0	0.0	0.0	1.0	58.38;
	2.0	0.0	0.0	1.0	58.38;
	2.0	0.0	0.0	1.0	58.38;
	2.0	0.0	0.0	1.0	58.38;
	2.0	0.0	0.0	1.0	58.38;
	2.0	0.0	0.0	1.0	58.38;
	2.0	0.0	0.0	1.0	58.38;
	2.0	0.0	0.0	1.0	58.38;
	2.0	0.0	0.0	1.0	58.38;
	2.0	0.0	0.0	1.0	58.38;
	2.0	0.0	0.0	1.0	58.38;
	2.0	0.0	0.0	1.0	58.38;
	2.0	0.0	0.0	1.0	58.38;
	2.0	0.0	0.0	1.0	58.38;
	2.0	0.0	0.0	1.0	58.38;
	2.0	0.0	0.0	1.0	58.38;
	2.0	0.0	0.0	1.0	58.38;
	2.0	0.0	0.0	1.0	58.38;
	2.0	0.0	0.0	1.0	58.38;
	2.0	0.0	0.0	1.0	58.38;
	2.0	0.0	0.0	1.0	58.38;
	2.0	0.0	0.0	1.0	58.38;
	2.0	0.0	0.0	1.0	58.38;
	2.0	0.0	0.0	1.0	58.38;
	2.0	0.0	0.0	1.0	58.38;
	2.0	0.0	0.0	1.0	58.38;
	2.0	0.0	0.0	1.0	58.38;
	2.0	0.0	0.0	1.0	58.38;
	2.0	0.0	0.0	1.0	58.38;
	2.0	0.0	0.0	1.0	58.38;
	2.0	0.0	0.0	1.0	58.38;
	2.0	0.0	0.0	1.0	58.38;
	2.0	0.0	0.0	1.0	58.38;
	2.0	0.0	0.0	1.0	58.38;
	2.0	0.0	0.0	1.0	58.38;
	2.0	0.0	0.0	1.0	58.38;
	2.0	0.0	0.0	1.0	58.38;
	2.0	0.0	0.0	1.0	58.38;
];

%% bus names
mpc.bus_name = {
	"buses_0";
	"buses_1";
	"buses_2";
	"buses_3";
	"buses_4";
	"buses_5";
	"buses_6";
	"buses_7";
	"buses_8";
	"buses_9";
	"buses_10";
	"buses_11";
	"buses_12";
	"buses_13";
	"buses_14";
	"buses_15";
	"buses_16";
	"buses_17";
	"buses_18";
	"buses_19";
	"buses_20";
	"buses_21";
	"buses_22";
	"buses_23";
	"buses_24";
	"buses_25";
	"buses_26";
	"buses_27";
	"buses_28";
	"buses_29";
	"buses_30";
	"buses_31";
	"buses_32";
	"buses_33";
	"buses_34";
	"buses_35";
	"buses_36";
	"buses_37";
	"buses_38";
	"buses_39";
	"buses_40";
	"buses_41";
	"buses_42";
	"buses_43";
	"buses_44";
	"buses_45";
	"buses_46";
	"buses_47";
	"buses_48";
	"buses_49";
	"buses_50";
	"buses_51";
	"buses_52";
	"buses_53";
	"buses_54";
	"buses_55";
	"buses_56";
	"buses_57";
	"buses_58";
	"buses_59";
	"buses_60";
	"buses_61";
	"buses_62";
	"buses_63";
	"buses_64";
	"buses_65";
	"buses_66";
	"buses_67";
	"buses_68";
	"buses_69";
	"buses_70";
	"buses_71";
	"buses_72";
};
